studies/australian_pv/source/LV3_55bus/Switches.dss
new line.Switch_1030_CLOSED lineCode=ughv_400al_triplex_ug_4w_bundled bus1=B1473 bus2=B1606 length=0.00100000000000 units=km switch=y phases=4
! new line.Switch_1059_OPEN lineCode=ughv_400al_triplex_ug_4w_bundled bus1=B1877 bus2=B2913 length=0.00100000000000 units=km switch=y phases=4
new line.Switch_1181_CLOSED lineCode=ughv_400al_triplex_ug_4w_bundled bus1=B2972 bus2=B2925 length=0.00100000000000 units=km switch=y phases=4
new line.Switch_1450_CLOSED lineCode=ughv_400al_triplex_ug_4w_bundled bus1=B608 bus2=B1656 length=0.00100000000000 units=km switch=y phases=4
new line.Switch_2207_CLOSED lineCode=ughv_400al_triplex_ug_4w_bundled bus1=B718 bus2=B2740 length=0.00100000000000 units=km switch=y phases=4
new line.Switch_3416_CLOSED lineCode=ughv_400al_triplex_ug_4w_bundled bus1=B1396 bus2=B1141 length=0.00100000000000 units=km switch=y phases=4
new line.Switch_3753_CLOSED lineCode=ughv_400al_triplex_ug_4w_bundled bus1=B2236 bus2=B2973 length=0.00100000000000 units=km switch=y phases=4
new line.Switch_3760_CLOSED lineCode=ughv_400al_triplex_ug_4w_bundled bus1=B1384 bus2=B1006 length=0.00100000000000 units=km switch=y phases=4
new line.Switch_3774_CLOSED lineCode=ughv_400al_triplex_ug_4w_bundled bus1=B2526 bus2=B1599 length=0.00100000000000 units=km switch=y phases=4
! new line.Switch_4072_OPEN lineCode=ughv_400al_triplex_ug_4w_bundled bus1=B3008 bus2=B1977 length=0.00100000000000 units=km switch=y phases=4
